<?xml version="1.0" encoding="UTF-8"?>

<!-- generated on 12/08/18 21:56:00 by Eclipse SUMO netedit Version 1.0.1
<configuration xmlns:xsi="http://www.w3.org/2001/XMLSchema-instance" xsi:noNamespaceSchemaLocation="http://sumo.dlr.de/xsd/netconvertConfiguration.xsd">

    <input>
        <sumo-net-file value="D:\Python%20Scripts\CS294%20project\BigNetwork\net.net.xml"/>
    </input>

    <output>
        <output-file value="D:\Python%20Scripts\CS294%20project\BigNetwork\net.net.xml"/>
        <output.street-names value="true"/>
    </output>

    <processing>
        <offset.disable-normalization value="true"/>
        <lefthand value="false"/>
    </processing>

    <junctions>
        <no-turnarounds value="true"/>
        <junctions.corner-detail value="5"/>
        <junctions.limit-turn-speed value="5.5"/>
        <rectangular-lane-cut value="false"/>
    </junctions>

    <pedestrian>
        <walkingareas value="false"/>
    </pedestrian>

</configuration>
-->

<net version="1.0" junctionCornerDetail="5" limitTurnSpeed="5.50" xmlns:xsi="http://www.w3.org/2001/XMLSchema-instance" xsi:noNamespaceSchemaLocation="http://sumo.dlr.de/xsd/net_file.xsd">

    <location netOffset="-584029.48,-4506771.53" convBoundary="717.87,1754.16,1149.72,2044.88" origBoundary="-74.005178,40.707425,-73.968640,40.766480" projParameter="+proj=utm +zone=18 +ellps=WGS84 +datum=WGS84 +units=m +no_defs"/>

    <type id="highway.bridleway" priority="1" numLanes="1" speed="2.78" allow="pedestrian" oneway="1" width="2.00"/>
    <type id="highway.bus_guideway" priority="1" numLanes="1" speed="27.78" allow="bus" oneway="1"/>
    <type id="highway.cycleway" priority="1" numLanes="1" speed="8.33" allow="bicycle" oneway="0" width="1.00"/>
    <type id="highway.footway" priority="1" numLanes="1" speed="2.78" allow="pedestrian" oneway="1" width="2.00"/>
    <type id="highway.ford" priority="1" numLanes="1" speed="2.78" allow="army" oneway="0"/>
    <type id="highway.living_street" priority="3" numLanes="1" speed="2.78" disallow="tram rail_urban rail rail_electric ship" oneway="0"/>
    <type id="highway.motorway" priority="13" numLanes="2" speed="44.44" allow="private emergency authority army vip passenger hov taxi bus coach delivery truck trailer motorcycle evehicle custom1 custom2" oneway="1"/>
    <type id="highway.motorway_link" priority="12" numLanes="1" speed="22.22" allow="private emergency authority army vip passenger hov taxi bus coach delivery truck trailer motorcycle evehicle custom1 custom2" oneway="1"/>
    <type id="highway.path" priority="1" numLanes="1" speed="2.78" allow="bicycle pedestrian" oneway="1" width="2.00"/>
    <type id="highway.pedestrian" priority="1" numLanes="1" speed="2.78" allow="pedestrian" oneway="1" width="2.00"/>
    <type id="highway.primary" priority="9" numLanes="2" speed="27.78" disallow="tram rail_urban rail rail_electric ship" oneway="0"/>
    <type id="highway.primary_link" priority="8" numLanes="1" speed="22.22" disallow="tram rail_urban rail rail_electric ship" oneway="0"/>
    <type id="highway.raceway" priority="14" numLanes="2" speed="83.33" allow="vip" oneway="0"/>
    <type id="highway.residential" priority="4" numLanes="1" speed="13.89" disallow="tram rail_urban rail rail_electric ship" oneway="0"/>
    <type id="highway.secondary" priority="7" numLanes="2" speed="27.78" disallow="tram rail_urban rail rail_electric ship" oneway="0"/>
    <type id="highway.secondary_link" priority="6" numLanes="1" speed="22.22" disallow="tram rail_urban rail rail_electric ship" oneway="0"/>
    <type id="highway.service" priority="2" numLanes="1" speed="5.56" allow="delivery bicycle pedestrian" oneway="0"/>
    <type id="highway.stairs" priority="1" numLanes="1" speed="1.39" allow="pedestrian" oneway="1" width="2.00"/>
    <type id="highway.step" priority="1" numLanes="1" speed="1.39" allow="pedestrian" oneway="1" width="2.00"/>
    <type id="highway.steps" priority="1" numLanes="1" speed="1.39" allow="pedestrian" oneway="1" width="2.00"/>
    <type id="highway.tertiary" priority="6" numLanes="1" speed="22.22" disallow="tram rail_urban rail rail_electric ship" oneway="0"/>
    <type id="highway.tertiary_link" priority="5" numLanes="1" speed="22.22" disallow="tram rail_urban rail rail_electric ship" oneway="0"/>
    <type id="highway.track" priority="1" numLanes="1" speed="5.56" disallow="tram rail_urban rail rail_electric ship" oneway="0"/>
    <type id="highway.trunk" priority="11" numLanes="2" speed="27.78" disallow="tram rail_urban rail rail_electric bicycle pedestrian ship" oneway="0"/>
    <type id="highway.trunk_link" priority="10" numLanes="1" speed="22.22" disallow="tram rail_urban rail rail_electric bicycle pedestrian ship" oneway="0"/>
    <type id="highway.unclassified" priority="5" numLanes="1" speed="13.89" disallow="tram rail_urban rail rail_electric ship" oneway="0"/>
    <type id="highway.unsurfaced" priority="1" numLanes="1" speed="8.33" disallow="tram rail_urban rail rail_electric ship" oneway="0"/>
    <type id="railway.light_rail" priority="15" numLanes="1" speed="27.78" allow="rail_urban" oneway="1"/>
    <type id="railway.preserved" priority="15" numLanes="1" speed="27.78" allow="rail" oneway="1"/>
    <type id="railway.rail" priority="15" numLanes="1" speed="83.33" allow="rail rail_electric" oneway="1"/>
    <type id="railway.subway" priority="15" numLanes="1" speed="27.78" allow="rail_urban" oneway="1"/>
    <type id="railway.tram" priority="15" numLanes="1" speed="13.89" allow="tram" oneway="1"/>

    <edge id=":4202908169_0" function="internal">
        <lane id=":4202908169_0_0" index="0" disallow="tram rail_urban rail rail_electric ship" speed="19.48" length="8.21" shape="997.12,1860.93 999.20,1859.71 1000.43,1858.55 1001.67,1857.38 1003.75,1856.17"/>
        <lane id=":4202908169_0_1" index="1" disallow="tram rail_urban rail rail_electric ship" speed="19.48" length="8.21" shape="997.12,1860.93 999.41,1860.17 1001.10,1860.01 1002.78,1859.84 1005.07,1859.08"/>
        <lane id=":4202908169_0_2" index="2" disallow="tram rail_urban rail rail_electric ship" speed="19.48" length="8.21" shape="998.45,1863.85 1000.73,1863.08 1002.42,1862.92 1004.11,1862.76 1006.39,1861.99"/>
        <lane id=":4202908169_0_3" index="3" disallow="tram rail_urban rail rail_electric ship" speed="19.48" length="8.21" shape="999.77,1866.76 1002.06,1865.99 1003.75,1865.83 1005.43,1865.67 1007.72,1864.91"/>
    </edge>
    <edge id=":7_0" function="internal">
        <lane id=":7_0_0" index="0" disallow="tram rail_urban rail rail_electric ship" speed="5.35" length="12.66" shape="1014.78,1757.36 1016.01,1753.65 1017.81,1752.03 1020.19,1752.50 1023.14,1755.06"/>
    </edge>
    <edge id=":A_0" function="internal">
        <lane id=":A_0_0" index="0" disallow="tram rail_urban rail rail_electric ship" speed="8.38" length="18.82" shape="790.28,1973.55 785.10,1975.85 782.31,1978.94 781.88,1982.83 783.84,1987.51"/>
    </edge>
    <edge id=":A_1" function="internal">
        <lane id=":A_1_0" index="0" disallow="tram rail_urban rail rail_electric ship" speed="11.18" length="24.98" shape="790.28,1973.55 766.46,1980.70"/>
        <lane id=":A_1_1" index="1" disallow="tram rail_urban rail rail_electric ship" speed="11.18" length="24.98" shape="789.37,1970.48 765.45,1977.67"/>
        <lane id=":A_1_2" index="2" disallow="tram rail_urban rail rail_electric ship" speed="11.18" length="24.98" shape="788.46,1967.42 764.43,1974.63"/>
    </edge>
    <edge id=":A_4" function="internal">
        <lane id=":A_4_0" index="0" disallow="tram rail_urban rail rail_electric ship" speed="4.73" length="6.71" shape="788.46,1967.42 785.68,1966.56 784.45,1965.24 784.77,1963.47 784.90,1963.31"/>
    </edge>
    <edge id=":A_14" function="internal">
        <lane id=":A_14_0" index="0" speed="4.73" length="2.70" shape="784.90,1963.31 786.63,1961.24"/>
    </edge>
    <edge id=":A_5" function="internal">
        <lane id=":A_5_0" index="0" disallow="tram rail_urban rail rail_electric ship" speed="10.89" length="22.12" shape="762.52,1953.85 764.71,1955.18 769.00,1955.32 775.39,1954.27 783.89,1952.03"/>
    </edge>
    <edge id=":A_6" function="internal">
        <lane id=":A_6_0" index="0" disallow="tram rail_urban rail rail_electric ship" speed="11.18" length="23.64" shape="762.52,1953.85 765.39,1956.44 770.06,1957.51 776.53,1957.06 784.80,1955.10"/>
    </edge>
    <edge id=":A_7" function="internal">
        <lane id=":A_7_0" index="0" disallow="tram rail_urban rail rail_electric ship" speed="11.18" length="39.85" shape="762.52,1953.85 783.84,1987.51"/>
    </edge>
    <edge id=":A_8" function="internal">
        <lane id=":A_8_0" index="0" disallow="tram rail_urban rail rail_electric ship" speed="10.07" length="27.45" shape="762.52,1953.85 766.47,1960.81 769.48,1967.94 769.75,1973.97 765.45,1977.67"/>
    </edge>
    <edge id=":A_9" function="internal">
        <lane id=":A_9_0" index="0" disallow="tram rail_urban rail rail_electric ship" speed="11.18" length="25.54" shape="759.85,1960.87 767.11,1958.67 772.25,1957.74 777.42,1956.93 784.80,1955.10"/>
        <lane id=":A_9_1" index="1" disallow="tram rail_urban rail rail_electric ship" speed="11.18" length="25.54" shape="760.86,1963.91 768.10,1961.72 773.21,1960.79 778.36,1959.99 785.71,1958.17"/>
        <lane id=":A_9_2" index="2" disallow="tram rail_urban rail rail_electric ship" speed="11.18" length="25.54" shape="761.88,1966.95 769.08,1964.76 774.17,1963.85 779.30,1963.05 786.63,1961.24"/>
    </edge>
    <edge id=":A_12" function="internal">
        <lane id=":A_12_0" index="0" disallow="tram rail_urban rail rail_electric ship" speed="11.18" length="10.60" shape="761.88,1966.95 766.09,1967.22 771.15,1970.74 771.29,1970.90"/>
    </edge>
    <edge id=":A_13" function="internal">
        <lane id=":A_13_0" index="0" disallow="tram rail_urban rail rail_electric ship" speed="4.49" length="8.10" shape="761.88,1966.95 764.43,1974.63"/>
    </edge>
    <edge id=":A_15" function="internal">
        <lane id=":A_15_0" index="0" speed="11.18" length="20.86" shape="771.29,1970.90 777.07,1977.50 783.84,1987.51"/>
    </edge>
    <edge id=":B_0" function="internal">
        <lane id=":B_0_0" index="0" disallow="tram rail_urban rail rail_electric ship" speed="9.00" length="18.88" shape="835.81,1958.39 831.19,1961.24 828.63,1964.73 828.11,1968.84 829.65,1973.57"/>
    </edge>
    <edge id=":B_1" function="internal">
        <lane id=":B_1_0" index="0" disallow="tram rail_urban rail rail_electric ship" speed="11.18" length="37.26" shape="834.56,1955.44 825.49,1959.79 817.81,1963.67 809.99,1967.19 800.53,1970.49"/>
    </edge>
    <edge id=":B_2" function="internal">
        <lane id=":B_2_0" index="0" disallow="tram rail_urban rail rail_electric ship" speed="5.47" length="10.49" shape="833.30,1952.50 829.25,1951.73 827.30,1950.08 827.46,1947.53 828.15,1946.48"/>
    </edge>
    <edge id=":B_13" function="internal">
        <lane id=":B_13_0" index="0" speed="5.47" length="2.87" shape="828.15,1946.48 829.72,1944.08"/>
    </edge>
    <edge id=":B_3" function="internal">
        <lane id=":B_3_0" index="0" disallow="tram rail_urban rail rail_electric ship" speed="10.82" length="24.40" shape="805.76,1933.47 809.68,1938.02 814.56,1940.32 820.41,1940.38 827.22,1938.19"/>
    </edge>
    <edge id=":B_4" function="internal">
        <lane id=":B_4_0" index="0" disallow="tram rail_urban rail rail_electric ship" speed="11.18" length="46.56" shape="805.76,1933.47 829.65,1973.57"/>
        <lane id=":B_4_1" index="1" disallow="tram rail_urban rail rail_electric ship" speed="11.18" length="46.56" shape="803.03,1935.13 826.79,1975.02"/>
    </edge>
    <edge id=":B_6" function="internal">
        <lane id=":B_6_0" index="0" disallow="tram rail_urban rail rail_electric ship" speed="11.18" length="35.34" shape="803.03,1935.13 806.03,1943.38 806.86,1953.41 804.93,1962.37 799.62,1967.42"/>
    </edge>
    <edge id=":B_7" function="internal">
        <lane id=":B_7_0" index="0" disallow="tram rail_urban rail rail_electric ship" speed="10.91" length="32.60" shape="803.03,1935.13 805.89,1942.90 806.41,1951.87 804.16,1959.78 798.72,1964.35"/>
    </edge>
    <edge id=":B_8" function="internal">
        <lane id=":B_8_0" index="0" disallow="tram rail_urban rail rail_electric ship" speed="11.18" length="35.18" shape="794.17,1948.98 804.45,1946.08 811.82,1944.06 818.64,1941.80 827.22,1938.19"/>
        <lane id=":B_8_1" index="1" disallow="tram rail_urban rail rail_electric ship" speed="11.18" length="35.18" shape="795.08,1952.05 805.48,1949.11 812.97,1947.05 819.86,1944.76 828.47,1941.13"/>
        <lane id=":B_8_2" index="2" disallow="tram rail_urban rail rail_electric ship" speed="11.18" length="35.18" shape="795.99,1955.12 806.52,1952.14 814.11,1950.03 821.08,1947.71 829.72,1944.08"/>
    </edge>
    <edge id=":B_11" function="internal">
        <lane id=":B_11_0" index="0" disallow="tram rail_urban rail rail_electric ship" speed="11.18" length="21.37" shape="796.89,1958.19 805.72,1957.17 813.65,1959.64 816.84,1962.35"/>
    </edge>
    <edge id=":B_12" function="internal">
        <lane id=":B_12_0" index="0" disallow="tram rail_urban rail rail_electric ship" speed="4.73" length="4.69" shape="796.89,1958.19 799.66,1959.05 800.89,1960.36"/>
    </edge>
    <edge id=":B_14" function="internal">
        <lane id=":B_14_0" index="0" speed="11.18" length="16.26" shape="816.84,1962.35 820.67,1965.59 826.79,1975.02"/>
    </edge>
    <edge id=":B_15" function="internal">
        <lane id=":B_15_0" index="0" speed="4.73" length="4.69" shape="800.89,1960.36 800.57,1962.13 798.72,1964.35"/>
    </edge>
    <edge id=":C_0" function="internal">
        <lane id=":C_0_0" index="0" disallow="tram rail_urban rail rail_electric ship" speed="9.45" length="20.10" shape="866.85,1944.41 862.01,1947.40 859.24,1951.11 858.56,1955.53 859.94,1960.66"/>
    </edge>
    <edge id=":C_1" function="internal">
        <lane id=":C_1_0" index="0" disallow="tram rail_urban rail rail_electric ship" speed="11.18" length="24.10" shape="866.85,1944.41 844.86,1954.30"/>
        <lane id=":C_1_1" index="1" disallow="tram rail_urban rail rail_electric ship" speed="11.18" length="24.10" shape="865.52,1941.49 843.55,1951.39"/>
        <lane id=":C_1_2" index="2" disallow="tram rail_urban rail rail_electric ship" speed="11.18" length="24.10" shape="864.20,1938.58 842.23,1948.47"/>
    </edge>
    <edge id=":C_4" function="internal">
        <lane id=":C_4_0" index="0" disallow="tram rail_urban rail rail_electric ship" speed="5.50" length="10.64" shape="864.20,1938.58 860.08,1937.91 858.07,1936.28 858.16,1933.70 858.84,1932.60"/>
    </edge>
    <edge id=":C_14" function="internal">
        <lane id=":C_14_0" index="0" speed="5.50" length="2.88" shape="858.84,1932.60 860.36,1930.15"/>
    </edge>
    <edge id=":C_5" function="internal">
        <lane id=":C_5_0" index="0" disallow="tram rail_urban rail rail_electric ship" speed="8.59" length="17.44" shape="843.79,1918.68 846.08,1922.88 849.16,1925.22 853.04,1925.70 857.71,1924.33"/>
    </edge>
    <edge id=":C_6" function="internal">
        <lane id=":C_6_0" index="0" disallow="tram rail_urban rail rail_electric ship" speed="11.18" length="44.99" shape="843.79,1918.68 859.94,1960.66"/>
    </edge>
    <edge id=":C_7" function="internal">
        <lane id=":C_7_0" index="0" disallow="tram rail_urban rail rail_electric ship" speed="11.18" length="34.84" shape="843.79,1918.68 846.49,1927.17 848.38,1937.01 847.92,1945.86 843.55,1951.39"/>
    </edge>
    <edge id=":C_8" function="internal">
        <lane id=":C_8_0" index="0" disallow="tram rail_urban rail rail_electric ship" speed="11.18" length="32.10" shape="843.79,1918.68 846.29,1926.71 847.73,1935.55 846.81,1943.40 842.23,1948.47"/>
    </edge>
    <edge id=":C_9" function="internal">
        <lane id=":C_9_0" index="0" disallow="tram rail_urban rail rail_electric ship" speed="11.18" length="24.05" shape="835.83,1934.27 857.71,1924.33"/>
        <lane id=":C_9_1" index="1" disallow="tram rail_urban rail rail_electric ship" speed="11.18" length="24.05" shape="837.14,1937.19 859.04,1927.24"/>
        <lane id=":C_9_2" index="2" disallow="tram rail_urban rail rail_electric ship" speed="11.18" length="24.05" shape="838.46,1940.11 860.36,1930.15"/>
    </edge>
    <edge id=":C_12" function="internal">
        <lane id=":C_12_0" index="0" disallow="tram rail_urban rail rail_electric ship" speed="11.18" length="11.82" shape="838.46,1940.11 845.09,1940.29 849.04,1943.65"/>
    </edge>
    <edge id=":C_13" function="internal">
        <lane id=":C_13_0" index="0" disallow="tram rail_urban rail rail_electric ship" speed="5.48" length="10.52" shape="838.46,1940.11 842.54,1940.78 844.52,1942.40 844.42,1944.96 843.76,1946.03"/>
    </edge>
    <edge id=":C_15" function="internal">
        <lane id=":C_15_0" index="0" speed="11.18" length="20.38" shape="849.04,1943.65 851.10,1945.40 856.16,1953.01 859.94,1960.66"/>
    </edge>
    <edge id=":C_16" function="internal">
        <lane id=":C_16_0" index="0" speed="5.48" length="2.88" shape="843.76,1946.03 842.23,1948.47"/>
    </edge>
    <edge id=":D_0" function="internal">
        <lane id=":D_0_0" index="0" disallow="tram rail_urban rail rail_electric ship" speed="9.19" length="19.75" shape="921.18,1933.35 918.52,1928.72 914.97,1926.15 910.53,1925.64 905.20,1927.20"/>
    </edge>
    <edge id=":D_1" function="internal">
        <lane id=":D_1_0" index="0" disallow="tram rail_urban rail rail_electric ship" speed="11.18" length="45.57" shape="921.18,1933.35 906.20,1890.31"/>
    </edge>
    <edge id=":D_2" function="internal">
        <lane id=":D_2_0" index="0" disallow="tram rail_urban rail rail_electric ship" speed="11.18" length="36.60" shape="921.18,1933.35 918.41,1924.61 916.55,1914.15 917.08,1904.66 921.48,1898.83"/>
    </edge>
    <edge id=":D_3" function="internal">
        <lane id=":D_3_0" index="0" disallow="tram rail_urban rail rail_electric ship" speed="11.18" length="33.86" shape="921.18,1933.35 918.62,1925.06 917.21,1915.61 918.20,1907.12 922.80,1901.74"/>
    </edge>
    <edge id=":D_4" function="internal">
        <lane id=":D_4_0" index="0" disallow="tram rail_urban rail rail_electric ship" speed="11.18" length="26.55" shape="929.38,1916.22 905.20,1927.20"/>
        <lane id=":D_4_1" index="1" disallow="tram rail_urban rail rail_electric ship" speed="11.18" length="26.55" shape="928.05,1913.30 903.89,1924.28"/>
        <lane id=":D_4_2" index="2" disallow="tram rail_urban rail rail_electric ship" speed="11.18" length="26.55" shape="926.73,1910.39 902.58,1921.36"/>
    </edge>
    <edge id=":D_7" function="internal">
        <lane id=":D_7_0" index="0" disallow="tram rail_urban rail rail_electric ship" speed="11.18" length="12.12" shape="926.73,1910.39 920.23,1910.28 915.98,1906.61"/>
    </edge>
    <edge id=":D_8" function="internal">
        <lane id=":D_8_0" index="0" disallow="tram rail_urban rail rail_electric ship" speed="5.56" length="10.98" shape="926.73,1910.39 922.51,1909.70 920.44,1908.03 920.54,1905.38 921.28,1904.20"/>
    </edge>
    <edge id=":D_14" function="internal">
        <lane id=":D_14_0" index="0" speed="11.18" length="19.15" shape="915.98,1906.61 914.51,1905.34 909.78,1897.91 906.20,1890.31"/>
    </edge>
    <edge id=":D_15" function="internal">
        <lane id=":D_15_0" index="0" speed="5.56" length="2.89" shape="921.28,1904.20 922.80,1901.74"/>
    </edge>
    <edge id=":D_9" function="internal">
        <lane id=":D_9_0" index="0" disallow="tram rail_urban rail rail_electric ship" speed="9.89" length="21.81" shape="896.08,1906.88 902.10,1903.39 905.80,1899.46 907.17,1895.10 906.20,1890.31"/>
    </edge>
    <edge id=":D_10" function="internal">
        <lane id=":D_10_0" index="0" disallow="tram rail_urban rail rail_electric ship" speed="11.18" length="26.47" shape="896.08,1906.88 920.16,1895.92"/>
        <lane id=":D_10_1" index="1" disallow="tram rail_urban rail rail_electric ship" speed="11.18" length="26.47" shape="897.39,1909.80 921.48,1898.83"/>
        <lane id=":D_10_2" index="2" disallow="tram rail_urban rail rail_electric ship" speed="11.18" length="26.47" shape="898.70,1912.72 922.80,1901.74"/>
    </edge>
    <edge id=":D_13" function="internal">
        <lane id=":D_13_0" index="0" disallow="tram rail_urban rail rail_electric ship" speed="5.56" length="10.94" shape="898.70,1912.72 902.91,1913.42 904.96,1915.10 904.85,1917.75 904.12,1918.90"/>
    </edge>
    <edge id=":D_16" function="internal">
        <lane id=":D_16_0" index="0" speed="5.56" length="2.90" shape="904.12,1918.90 902.58,1921.36"/>
    </edge>
    <edge id=":E_0" function="internal">
        <lane id=":E_0_0" index="0" disallow="tram rail_urban rail rail_electric ship" speed="10.10" length="22.05" shape="990.97,1888.51 985.28,1891.90 981.81,1895.90 980.56,1900.53 981.53,1905.78"/>
    </edge>
    <edge id=":E_1" function="internal">
        <lane id=":E_1_0" index="0" disallow="tram rail_urban rail rail_electric ship" speed="11.18" length="26.85" shape="990.97,1888.51 966.47,1899.54"/>
        <lane id=":E_1_1" index="1" disallow="tram rail_urban rail rail_electric ship" speed="11.18" length="26.85" shape="989.64,1885.60 965.16,1896.62"/>
        <lane id=":E_1_2" index="2" disallow="tram rail_urban rail rail_electric ship" speed="11.18" length="26.85" shape="988.32,1882.69 963.85,1893.70"/>
    </edge>
    <edge id=":E_4" function="internal">
        <lane id=":E_4_0" index="0" disallow="tram rail_urban rail rail_electric ship" speed="4.80" length="9.75" shape="988.32,1882.69 984.28,1873.81"/>
    </edge>
    <edge id=":E_5" function="internal">
        <lane id=":E_5_0" index="0" disallow="tram rail_urban rail rail_electric ship" speed="8.46" length="17.02" shape="968.04,1862.56 970.23,1866.64 973.22,1868.91 977.02,1869.36 981.63,1867.99"/>
    </edge>
    <edge id=":E_6" function="internal">
        <lane id=":E_6_0" index="0" disallow="tram rail_urban rail rail_electric ship" speed="11.18" length="45.28" shape="968.04,1862.56 981.53,1905.78"/>
    </edge>
    <edge id=":E_7" function="internal">
        <lane id=":E_7_0" index="0" disallow="tram rail_urban rail rail_electric ship" speed="11.18" length="36.22" shape="968.04,1862.56 970.29,1871.27 971.28,1881.58 969.93,1890.89 965.16,1896.62"/>
    </edge>
    <edge id=":E_8" function="internal">
        <lane id=":E_8_0" index="0" disallow="tram rail_urban rail rail_electric ship" speed="11.18" length="33.58" shape="968.04,1862.56 970.09,1870.82 970.63,1880.12 968.83,1888.43 963.85,1893.70"/>
    </edge>
    <edge id=":E_9" function="internal">
        <lane id=":E_9_0" index="0" disallow="tram rail_urban rail rail_electric ship" speed="11.18" length="26.78" shape="957.26,1879.06 981.63,1867.99"/>
        <lane id=":E_9_1" index="1" disallow="tram rail_urban rail rail_electric ship" speed="11.18" length="26.78" shape="958.58,1881.97 982.95,1870.90"/>
        <lane id=":E_9_2" index="2" disallow="tram rail_urban rail rail_electric ship" speed="11.18" length="26.78" shape="959.89,1884.89 984.28,1873.81"/>
    </edge>
    <edge id=":E_12" function="internal">
        <lane id=":E_12_0" index="0" disallow="tram rail_urban rail rail_electric ship" speed="11.18" length="12.41" shape="959.89,1884.89 966.62,1885.09 970.97,1888.74"/>
    </edge>
    <edge id=":E_13" function="internal">
        <lane id=":E_13_0" index="0" disallow="tram rail_urban rail rail_electric ship" speed="5.60" length="11.22" shape="959.89,1884.89 964.18,1885.61 966.27,1887.32 966.16,1890.01 965.38,1891.26"/>
    </edge>
    <edge id=":E_14" function="internal">
        <lane id=":E_14_0" index="0" speed="11.18" length="20.24" shape="970.97,1888.74 972.81,1890.27 977.95,1897.98 981.53,1905.78"/>
    </edge>
    <edge id=":E_15" function="internal">
        <lane id=":E_15_0" index="0" speed="5.60" length="2.89" shape="965.38,1891.26 963.85,1893.70"/>
    </edge>
    <edge id=":F_0" function="internal">
        <lane id=":F_0_0" index="0" disallow="tram rail_urban rail rail_electric ship" speed="8.60" length="18.58" shape="1044.44,1877.36 1042.37,1872.60 1039.32,1869.91 1035.28,1869.29 1030.25,1870.75"/>
    </edge>
    <edge id=":F_1" function="internal">
        <lane id=":F_1_0" index="0" disallow="tram rail_urban rail rail_electric ship" speed="11.18" length="47.44" shape="1044.44,1877.36 1031.93,1831.61"/>
        <lane id=":F_1_1" index="1" disallow="tram rail_urban rail rail_electric ship" speed="11.18" length="47.44" shape="1047.53,1876.53 1035.01,1830.76"/>
    </edge>
    <edge id=":F_3" function="internal">
        <lane id=":F_3_0" index="0" disallow="tram rail_urban rail rail_electric ship" speed="11.18" length="16.69" shape="1047.53,1876.53 1047.83,1867.12 1050.17,1860.24"/>
    </edge>
    <edge id=":F_4" function="internal">
        <lane id=":F_4_0" index="0" disallow="tram rail_urban rail rail_electric ship" speed="5.28" length="9.39" shape="1047.53,1876.53 1048.74,1872.94 1050.50,1871.38 1052.81,1871.85 1053.48,1872.44"/>
    </edge>
    <edge id=":F_21" function="internal">
        <lane id=":F_21_0" index="0" speed="11.18" length="26.17" shape="1050.17,1860.24 1051.76,1855.58 1057.95,1845.22 1065.03,1839.38"/>
    </edge>
    <edge id=":F_22" function="internal">
        <lane id=":F_22_0" index="0" speed="5.28" length="2.90" shape="1053.48,1872.44 1055.65,1874.36"/>
    </edge>
    <edge id=":F_5" function="internal">
        <lane id=":F_5_0" index="0" disallow="tram rail_urban rail rail_electric ship" speed="10.81" length="24.89" shape="1070.33,1854.50 1063.92,1857.79 1059.84,1862.06 1058.12,1867.30 1058.74,1873.53"/>
    </edge>
    <edge id=":F_6" function="internal">
        <lane id=":F_6_0" index="0" disallow="tram rail_urban rail rail_electric ship" speed="11.18" length="43.53" shape="1069.28,1851.48 1028.93,1867.83"/>
    </edge>
    <edge id=":F_7" function="internal">
        <lane id=":F_7_0" index="0" disallow="tram rail_urban rail rail_electric ship" speed="11.18" length="15.88" shape="1068.22,1848.46 1059.44,1848.51 1052.81,1845.95"/>
    </edge>
    <edge id=":F_8" function="internal">
        <lane id=":F_8_0" index="0" disallow="tram rail_urban rail rail_electric ship" speed="5.60" length="11.04" shape="1068.22,1848.46 1064.02,1847.38 1062.09,1845.51 1062.42,1842.84 1063.22,1841.79"/>
    </edge>
    <edge id=":F_23" function="internal">
        <lane id=":F_23_0" index="0" speed="11.18" length="23.98" shape="1052.81,1845.95 1049.09,1844.52 1040.00,1838.08 1035.01,1830.76"/>
    </edge>
    <edge id=":F_24" function="internal">
        <lane id=":F_24_0" index="0" speed="5.60" length="3.01" shape="1063.22,1841.79 1065.03,1839.38"/>
    </edge>
    <edge id=":F_9" function="internal">
        <lane id=":F_9_0" index="0" disallow="tram rail_urban rail rail_electric ship" speed="9.22" length="20.20" shape="1046.32,1827.64 1048.43,1831.94 1051.90,1834.32 1056.73,1834.79 1062.91,1833.34"/>
    </edge>
    <edge id=":F_10" function="internal">
        <lane id=":F_10_0" index="0" disallow="tram rail_urban rail rail_electric ship" speed="11.18" length="47.53" shape="1046.32,1827.64 1058.74,1873.53"/>
        <lane id=":F_10_1" index="1" disallow="tram rail_urban rail rail_electric ship" speed="11.18" length="47.53" shape="1043.23,1828.49 1055.65,1874.36"/>
    </edge>
    <edge id=":F_12" function="internal">
        <lane id=":F_12_0" index="0" disallow="tram rail_urban rail rail_electric ship" speed="11.18" length="23.47" shape="1043.23,1828.49 1044.94,1840.57 1042.90,1850.66 1042.33,1851.46"/>
    </edge>
    <edge id=":F_13" function="internal">
        <lane id=":F_13_0" index="0" disallow="tram rail_urban rail rail_electric ship" speed="5.31" length="9.57" shape="1043.23,1828.49 1042.03,1832.14 1040.25,1833.73 1037.92,1833.27 1037.19,1832.64"/>
    </edge>
    <edge id=":F_25" function="internal">
        <lane id=":F_25_0" index="0" speed="11.18" length="20.30" shape="1042.33,1851.46 1037.13,1858.78 1027.61,1864.92"/>
    </edge>
    <edge id=":F_26" function="internal">
        <lane id=":F_26_0" index="0" speed="5.31" length="2.87" shape="1037.19,1832.64 1035.01,1830.76"/>
    </edge>
    <edge id=":F_14" function="internal">
        <lane id=":F_14_0" index="0" disallow="tram rail_urban rail rail_electric ship" speed="10.61" length="22.66" shape="1020.26,1848.66 1026.45,1845.12 1030.45,1841.10 1032.28,1836.59 1031.93,1831.61"/>
    </edge>
    <edge id=":F_15" function="internal">
        <lane id=":F_15_0" index="0" disallow="tram rail_urban rail rail_electric ship" speed="11.60" length="27.24" shape="1021.58,1851.58 1028.81,1847.37 1033.46,1842.50 1035.53,1836.96 1035.01,1830.76"/>
    </edge>
    <edge id=":F_16" function="internal">
        <lane id=":F_16_0" index="0" disallow="tram rail_urban rail rail_electric ship" speed="19.48" length="44.92" shape="1021.58,1851.58 1033.73,1845.94 1043.77,1841.22 1053.05,1837.12 1062.91,1833.34"/>
        <lane id=":F_16_1" index="1" disallow="tram rail_urban rail rail_electric ship" speed="19.48" length="44.92" shape="1022.90,1854.49 1035.01,1848.87 1044.96,1844.19 1054.15,1840.12 1063.97,1836.36"/>
        <lane id=":F_16_2" index="2" disallow="tram rail_urban rail rail_electric ship" speed="19.48" length="44.92" shape="1024.22,1857.41 1036.29,1851.80 1046.15,1847.15 1055.24,1843.13 1065.03,1839.38"/>
    </edge>
    <edge id=":F_19" function="internal">
        <lane id=":F_19_0" index="0" disallow="tram rail_urban rail rail_electric ship" speed="12.13" length="38.21" shape="1024.22,1857.41 1032.61,1856.95 1042.38,1860.71 1050.93,1867.05 1055.65,1874.36"/>
    </edge>
    <edge id=":F_20" function="internal">
        <lane id=":F_20_0" index="0" disallow="tram rail_urban rail rail_electric ship" speed="5.23" length="12.03" shape="1024.22,1857.41 1027.88,1858.01 1029.67,1859.47 1029.58,1861.77 1027.61,1864.92"/>
    </edge>
